tests/data/state_estimation/dummy-test-sym/input.json
{
  "version": "1.0",
  "type": "input",
  "is_batch": false,
  "attributes": {},
  "data": {
    "node": [
      {
        "id": 1,
        "u_rated": 10000.0
      },
      {
        "id": 2,
        "u_rated": 10000.0
      },
      {
        "id": 3,
        "u_rated": 10000.0
      }
    ],
    "line": [
      {
        "id": 4,
        "from_node": 1,
        "to_node": 2,
        "from_status": 1,
        "to_status": 1,
        "r1": 10.0,
        "x1": 0.0,
        "c1": 0.0,
        "tan1": 0.0,
        "r0": 10.0,
        "x0": 0.0,
        "c0": 0.0,
        "tan0": 0.0,
        "i_n": 1000.0
      }
    ],
    "link": [
      {
        "id": 5,
        "from_node": 2,
        "to_node": 3,
        "from_status": 1,
        "to_status": 1
      }
    ],
    "source": [
      {
        "id": 6,
        "node": 1,
        "status": 1,
        "u_ref": 1.05,
        "sk": 1000000000000.0
      },
      {
        "id": 10,
        "node": 3,
        "status": 0,
        "u_ref": 1.05,
        "sk": 1000000000000.0
      }
    ],
    "sym_load": [
      {
        "id": 7,
        "node": 3,
        "status": 1,
        "type": 2
      }
    ],
    "asym_load": [
      {
        "id": 8,
        "node": 3,
        "status": 1,
        "type": 1
      }
    ],
    "shunt": [
      {
        "id": 9,
        "node": 3,
        "status": 1,
        "g1": 0.015,
        "b1": 0.0,
        "g0": 0.015,
        "b0": 0.0
      }
    ],
    "sym_voltage_sensor": [
      {
        "id": 101,
        "measured_object": 1,
        "u_measured": 10499.997910401746,
        "u_sigma": 100.0
      },
      {
        "id": 201,
        "measured_object": 2,
        "u_measured": 8399.998349321393,
        "u_sigma": 100.0
      }
    ],
    "asym_voltage_sensor": [
      {
        "id": 301,
        "measured_object": 3,
        "u_measured": [
          4749.741247551351,
          4849.741247551351,
          4949.741247551351
        ],
        "u_sigma": 100.0
      }
    ],
    "sym_power_sensor": [
      {
        "id": 401,
        "measured_object": 4,
        "measured_terminal_type": 0,
        "p_measured": 2204999.100318829,
        "q_measured": -0.02102851034744674,
        "power_sigma": 22050.0
      },
      {
        "id": 402,
        "measured_object": 4,
        "measured_terminal_type": 1,
        "p_measured": -1763999.2846650616,
        "q_measured": 0.02102851034744716,
        "power_sigma": 17640.0
      },
      {
        "id": 601,
        "measured_object": 6,
        "measured_terminal_type": 2,
        "p_measured": 2204999.1003264044,
        "q_measured": -0.02112141376911625,
        "power_sigma": 22050.0
      },
      {
        "id": 701,
        "measured_object": 7,
        "measured_terminal_type": 4,
        "p_measured": 352799.8525230141,
        "q_measured": -0.0,
        "power_sigma": 3528.0
      },
      {
        "id": 901,
        "measured_object": 9,
        "measured_terminal_type": 3,
        "p_measured": 1058399.5575690423,
        "q_measured": -4.2351647362715017e-16,
        "power_sigma": 10584.0
      },
      {
        "id": 1001,
        "measured_object": 10,
        "measured_terminal_type": 2,
        "p_measured": 0.0,
        "q_measured": 0.0,
        "power_sigma": 1.0
      }
    ],
    "asym_power_sensor": [
      {
        "id": 801,
        "measured_object": 8,
        "measured_terminal_type": 4,
        "p_measured": [
          116599.9508410047,
          117599.9508410047,
          118599.9508410047
        ],
        "q_measured": [
          -0.0,
          -0.0,
          -0.0
        ],
        "power_sigma": 1176.0
      }
    ]
  }
}
