tests/data/state_estimation/dummy-test-sym/sym_output.json
{
  "version": "1.0",
  "type": "sym_output",
  "is_batch": false,
  "attributes": {},
  "data": {
    "node": [
      {
        "id": 1,
        "energized": 1,
        "u_pu": 1.0499997910401746,
        "u": 10499.997910401746,
        "u_angle": -1.990073966390232e-06
      },
      {
        "id": 2,
        "energized": 1,
        "u_pu": 0.8399998349321394,
        "u": 8399.998349321393,
        "u_angle": -1.992458152179871e-06
      },
      {
        "id": 3,
        "energized": 1,
        "u_pu": 0.8399998244321413,
        "u": 8399.998244321412,
        "u_angle": -1.9799581522487934e-06
      }
    ],
    "line": [
      {
        "id": 4,
        "energized": 1,
        "loading": 0.12124353118878381,
        "p_from": 2204999.100318829,
        "q_from": -0.02102851034744674,
        "i_from": 121.2435311887838,
        "s_from": 2204999.100318829,
        "p_to": -1763999.2846650616,
        "q_to": 0.02102851034744716,
        "i_to": 121.2435311887838,
        "s_to": 1763999.2846650619
      }
    ],
    "link": [
      {
        "id": 5,
        "energized": 1,
        "loading": 0.0,
        "p_from": 1763999.2978788926,
        "q_from": -0.0349763033061861,
        "i_from": 121.24353209699933,
        "s_from": 1763999.297878893,
        "p_to": -1763999.2758289017,
        "q_to": 0.012926312042700267,
        "i_to": 121.24353209699933,
        "s_to": 1763999.2758289017
      }
    ],
    "source": [
      {
        "id": 6,
        "energized": 1,
        "p": 2204999.1003264044,
        "q": -0.02112141376911625,
        "i": 121.24353118920031,
        "s": 2204999.1003264044,
        "pf": 1.0
      },
      {
        "id": 10,
        "energized": 0,
        "p": 0.0,
        "q": 0.0,
        "i": 0.0,
        "s": 0.0,
        "pf": 0.0
      }
    ],
    "sym_load": [
      {
        "id": 7,
        "energized": 1,
        "p": 352799.8525230141,
        "q": -0.0,
        "i": 24.24870623775676,
        "s": 352799.8525230141,
        "pf": 1.0
      }
    ],
    "asym_load": [
      {
        "id": 8,
        "energized": 1,
        "p": 352799.8525230141,
        "q": -0.0,
        "i": 24.24870623775676,
        "s": 352799.8525230141,
        "pf": 1.0
      }
    ],
    "shunt": [
      {
        "id": 9,
        "energized": 1,
        "p": 1058399.5575690423,
        "q": -4.2351647362715017e-16,
        "i": 72.74611871327029,
        "s": 1058399.5575690423,
        "pf": 1.0
      }
    ],
    "sym_voltage_sensor": [
      {
        "id": 101,
        "u_residual": 0.0
      },
      {
        "id": 201,
        "u_residual": 0.0
      }
    ],
    "asym_voltage_sensor": [
      {
        "id" : 301,
        "u_residual": 0.0
      }
    ]
  }
}